18
	Energy:       3.5181845
C         -3.17276        0.85129       -0.00934
C         -1.92595        0.01945       -0.06021
H         -2.94615        1.93411        0.09505
H         -3.78975        0.53271        0.85628
H         -3.75262        0.69840       -0.94307
C         -0.70431        0.56591        0.01533
C          0.52639       -0.29814       -0.03881
C          1.80134        0.54560        0.06524
H          0.53213       -0.85859       -0.99945
H          0.49488       -1.02454        0.80280
C          3.04870       -0.33166        0.01029
H          1.79971        1.10747        1.02503
H          1.83695        1.27320       -0.77513
H          3.04931       -1.05531        0.85317
H          3.95521        0.30491        0.08766
H          3.08662       -0.88934       -0.94975
H         -2.03170       -1.05731       -0.16154
H         -0.60014        1.64368        0.11673
