10
	Energy:      11.3888116
C         -0.52924        0.03501       -0.03328
C          0.54150        1.11820       -0.06311
S         -2.18927        0.77738       -0.07249
H         -0.43371       -0.59808        0.87457
H         -0.42418       -0.63272       -0.91445
H         -2.15442        1.10878        1.29570
S          2.20156        0.37490       -0.05611
H          0.44399        1.80219        0.80682
H          0.43842        1.73441       -0.98127
H          2.16369        0.12239        1.32874
