15
	Energy:       7.4494771
C         -1.79403       -0.35491        0.08225
C         -0.53594        0.51255        0.04023
C          0.72820       -0.35310       -0.01159
H         -0.50581        1.15515        0.94774
H         -0.57307        1.16514       -0.85987
C          1.98560        0.51038       -0.05361
H          0.70420       -0.99597       -0.91854
H          0.77140       -1.00595        0.88749
H          1.97904        1.15841       -0.95590
H          2.88378       -0.14144       -0.09063
H          2.04638        1.14842        0.85375
S         -3.26957        0.70652        0.14299
H         -1.76972       -0.99224        0.99222
H         -1.83764       -0.98212       -0.83402
H         -4.14149       -0.39845        0.16849
