10
	Energy:      24.2572817
C         -1.66182        2.25553        0.09819
S         -0.52453        0.93330        0.63690
H         -1.95775        2.13820       -0.96634
H         -1.16294        3.23815        0.22774
H         -2.57188        2.23891        0.73308
C         -1.59695       -0.42939        0.06691
H         -2.50625       -0.47171        0.70168
H         -1.05102       -1.38949        0.17354
H         -1.89903       -0.30157       -0.99469
O          0.27361        0.96789       -0.67700
