9
	Energy:      11.5919466
C         -2.17711        0.03830       -0.01827
S         -1.07318        1.48478        0.01208
H         -2.03660       -0.57609        0.89539
H         -2.01430       -0.55455       -0.94241
H         -3.22593        0.39933       -0.02679
C          0.45334        0.49404        0.01865
H          0.50265       -0.13641        0.93084
H          1.31944        1.18684        0.03745
H          0.52487       -0.11436       -0.90695
