10
	Energy:      11.1298387
C         -0.29236        1.89090       -0.07102
S          1.49632        1.92128        0.25090
H         -0.72358        2.90571        0.05548
H         -0.77095        1.22466        0.67561
H         -0.49924        1.47913       -1.08023
S          1.88197        3.32329       -1.31126
C          2.30349        2.02893       -2.51578
H          2.59988        2.51842       -3.46601
H          1.42247        1.38672       -2.72130
H          3.16990        1.43580       -2.15616
